<?xml version='1.0' encoding='UTF-8'?>
<edges xmlns:xsi="http://www.w3.org/2001/XMLSchema-instance" xsi:noNamespaceSchemaLocation="http://sumo.dlr.de/xsd/edges_file.xsd">
  <edge id="bottom" type="edgeType" from="bottom" to="right" length="65.0" shape="0.00,-41.38 1.67,-41.35 3.33,-41.25 4.99,-41.08 6.64,-40.84 8.28,-40.54 9.90,-40.18 11.51,-39.75 13.10,-39.25 14.67,-38.69 16.22,-38.07 17.74,-37.39 19.23,-36.64 20.69,-35.84 22.12,-34.97 23.51,-34.06 24.86,-33.08 26.17,-32.05 27.44,-30.97 28.67,-29.84 29.84,-28.67 30.97,-27.44 32.05,-26.17 33.08,-24.86 34.06,-23.51 34.97,-22.12 35.84,-20.69 36.64,-19.23 37.39,-17.74 38.07,-16.22 38.69,-14.67 39.25,-13.10 39.75,-11.51 40.18,-9.90 40.54,-8.28 40.84,-6.64 41.08,-4.99 41.25,-3.33 41.35,-1.67 41.38,0.00"/>
  <edge id="right" type="edgeType" from="right" to="top" length="65.0" shape="41.38,0.00 41.35,1.67 41.25,3.33 41.08,4.99 40.84,6.64 40.54,8.28 40.18,9.90 39.75,11.51 39.25,13.10 38.69,14.67 38.07,16.22 37.39,17.74 36.64,19.23 35.84,20.69 34.97,22.12 34.06,23.51 33.08,24.86 32.05,26.17 30.97,27.44 29.84,28.67 28.67,29.84 27.44,30.97 26.17,32.05 24.86,33.08 23.51,34.06 22.12,34.97 20.69,35.84 19.23,36.64 17.74,37.39 16.22,38.07 14.67,38.69 13.10,39.25 11.51,39.75 9.90,40.18 8.28,40.54 6.64,40.84 4.99,41.08 3.33,41.25 1.67,41.35 0.00,41.38"/>
  <edge id="top" type="edgeType" from="top" to="left" length="65.0" shape="0.00,41.38 -1.67,41.35 -3.33,41.25 -4.99,41.08 -6.64,40.84 -8.28,40.54 -9.90,40.18 -11.51,39.75 -13.10,39.25 -14.67,38.69 -16.22,38.07 -17.74,37.39 -19.23,36.64 -20.69,35.84 -22.12,34.97 -23.51,34.06 -24.86,33.08 -26.17,32.05 -27.44,30.97 -28.67,29.84 -29.84,28.67 -30.97,27.44 -32.05,26.17 -33.08,24.86 -34.06,23.51 -34.97,22.12 -35.84,20.69 -36.64,19.23 -37.39,17.74 -38.07,16.22 -38.69,14.67 -39.25,13.10 -39.75,11.51 -40.18,9.90 -40.54,8.28 -40.84,6.64 -41.08,4.99 -41.25,3.33 -41.35,1.67 -41.38,0.00"/>
  <edge id="left" type="edgeType" from="left" to="bottom" length="65.0" shape="-41.38,0.00 -41.35,-1.67 -41.25,-3.33 -41.08,-4.99 -40.84,-6.64 -40.54,-8.28 -40.18,-9.90 -39.75,-11.51 -39.25,-13.10 -38.69,-14.67 -38.07,-16.22 -37.39,-17.74 -36.64,-19.23 -35.84,-20.69 -34.97,-22.12 -34.06,-23.51 -33.08,-24.86 -32.05,-26.17 -30.97,-27.44 -29.84,-28.67 -28.67,-29.84 -27.44,-30.97 -26.17,-32.05 -24.86,-33.08 -23.51,-34.06 -22.12,-34.97 -20.69,-35.84 -19.23,-36.64 -17.74,-37.39 -16.22,-38.07 -14.67,-38.69 -13.10,-39.25 -11.51,-39.75 -9.90,-40.18 -8.28,-40.54 -6.64,-40.84 -4.99,-41.08 -3.33,-41.25 -1.67,-41.35 -0.00,-41.38"/>
</edges>
